data/scf/pgm_interop.json
{
  "version": "1.0",
  "type": "input",
  "is_batch": false,
  "attributes": {},
  "data": {
    "node": [
      {
        "id": 1,
        "u_rated": 150000.0
      },
      {
        "id": 2,
        "u_rated": 150000.0
      },
      {
        "id": 3,
        "u_rated": 10500.0
      }
    ],
    "line": [
      {
        "id": 4,
        "from_node": 1,
        "to_node": 2,
        "from_status": 1,
        "to_status": 1,
        "r1": 15.0,
        "x1": 45.0,
        "c1": 0.0,
        "tan1": 0.0
      }
    ],
    "generic_branch": [
      {
        "id": 5,
        "from_node": 2,
        "to_node": 3,
        "from_status": 1,
        "to_status": 1,
        "r1": 0.0,
        "x1": 0.11,
        "g1": 0.0,
        "b1": 0.0,
        "k": 1.025,
        "theta": 0.0,
        "sn": 40000000.0
      }
    ],
    "source": [
      {
        "id": 6,
        "node": 1,
        "status": 1,
        "u_ref": 1.0,
        "sk": 2000000000.0,
        "rx_ratio": 0.1,
        "z01_ratio": 1.0
      }
    ],
    "sym_load": [
      {
        "id": 7,
        "node": 3,
        "status": 1,
        "type": 0,
        "p_specified": 5000000.0,
        "q_specified": 1000000.0
      }
    ]
  }
}
